MODEL 1
REMARK VINA RESULT:   -13.228      0.000      0.000
REMARK INTER + INTRA:         -19.097
REMARK INTER:                 -18.641
REMARK INTRA:                  -0.456
REMARK UNBOUND:                -0.456
REMARK Flexibility Score: inf
REMARK Active torsions [ 7 ] -> [ 7 ]
ROOT
ATOM      1  C1  LIG L   1      15.819  54.723  12.391  1.00  0.00     0.038 A 
ATOM      2  C2  LIG L   1      16.902  54.563  11.413  1.00  0.00    -0.029 A 
ATOM      3  C3  LIG L   1      17.879  53.539  11.645  1.00  0.00     0.007 A 
ATOM      4  C4  LIG L   1      17.794  52.691  12.809  1.00  0.00     0.024 A 
ATOM      5  C5  LIG L   1      16.742  52.841  13.759  1.00  0.00     0.035 A 
ATOM      6  C6  LIG L   1      15.749  53.880  13.529  1.00  0.00     0.047 A 
ATOM      7  C7  LIG L   1      17.039  55.438  10.145  1.00  0.00     0.045 C 
ENDROOT
BRANCH    1    8
ATOM      8  N1  LIG L   1      14.839  55.703  12.220  1.00  0.00    -0.283 N 
ATOM      9  H1  LIG L   1      13.964  55.456  11.842  1.00  0.00     0.155 HD
BRANCH    8   10
ATOM     10  C8  LIG L   1      15.084  57.020  12.578  1.00  0.00     0.220 A 
ATOM     11  C9  LIG L   1      14.251  59.246  12.740  1.00  0.00     0.077 A 
ATOM     12 C10  LIG L   1      15.507  59.703  13.262  1.00  0.00     0.048 A 
ATOM     13  N2  LIG L   1      14.088  57.916  12.420  1.00  0.00    -0.214 NA
ATOM     14 C11  LIG L   1      16.532  58.744  13.420  1.00  0.00     0.116 A 
ATOM     15  N3  LIG L   1      16.307  57.428  13.078  1.00  0.00    -0.223 NA
BRANCH   11   16
ATOM     16 C12  LIG L   1      13.072  60.140  12.513  1.00  0.00     0.019 A 
ATOM     17 C13  LIG L   1      11.800  62.293  12.848  1.00  0.00     0.020 A 
ATOM     18 C14  LIG L   1      12.960  61.469  13.100  1.00  0.00     0.013 A 
ATOM     19 C15  LIG L   1      10.759  61.765  12.006  1.00  0.00     0.111 A 
ATOM     20  N4  LIG L   1      10.878  60.485  11.445  1.00  0.00    -0.263 NA
ATOM     21 C16  LIG L   1      11.983  59.670  11.668  1.00  0.00     0.120 A 
ENDBRANCH   11   16
ENDBRANCH    8   10
ENDBRANCH    1    8
BRANCH    5   22
ATOM     22  N5  LIG L   1      16.718  51.950  14.892  1.00  0.00    -0.281 N 
ATOM     23 C17  LIG L   1      15.680  51.732  15.782  1.00  0.00     0.248 C 
ATOM     24  H2  LIG L   1      17.542  51.434  15.053  1.00  0.00     0.155 HD
ATOM     25  O1  LIG L   1      14.681  52.432  15.864  1.00  0.00    -0.270 OA
BRANCH   23   26
ATOM     26 C18  LIG L   1      15.769  50.577  16.726  1.00  0.00     0.037 A 
ATOM     27 C19  LIG L   1      17.030  49.860  16.934  1.00  0.00     0.013 A 
ATOM     28 C20  LIG L   1      14.579  50.159  17.437  1.00  0.00     0.013 A 
ATOM     29 C21  LIG L   1      17.085  48.739  17.838  1.00  0.00     0.002 A 
ATOM     30 C22  LIG L   1      14.637  49.060  18.323  1.00  0.00     0.002 A 
ATOM     31 C23  LIG L   1      15.873  48.328  18.543  1.00  0.00    -0.064 A 
BRANCH   31   32
ATOM     32 C24  LIG L   1      15.834  47.130  19.510  1.00  0.00    -0.043 C 
BRANCH   32   33
ATOM     33  N6  LIG L   1      17.105  46.773  20.209  1.00  0.00     0.380 N 
ATOM     34 C25  LIG L   1      17.413  47.775  21.294  1.00  0.00    -0.097 C 
ATOM     35 C26  LIG L   1      17.061  45.359  20.795  1.00  0.00    -0.097 C 
ATOM     36  H3  LIG L   1      17.848  46.797  19.510  1.00  0.00    -0.082 HD
ATOM     37 C27  LIG L   1      18.743  47.434  22.021  1.00  0.00    -0.098 C 
ATOM     38 C28  LIG L   1      18.407  44.995  21.502  1.00  0.00    -0.098 C 
ATOM     39  N7  LIG L   1      18.701  46.025  22.594  1.00  0.00     0.375 N 
ATOM     40 C29  LIG L   1      19.936  45.652  23.300  1.00  0.00    -0.096 C 
ATOM     41  H4  LIG L   1      17.944  46.026  23.279  1.00  0.00    -0.082 HD
ENDBRANCH   32   33
ENDBRANCH   31   32
ENDBRANCH   23   26
ENDBRANCH    5   22
TORSDOF 7
ENDMDL
MODEL 2
REMARK VINA RESULT:   -11.276      0.983      1.681
REMARK INTER + INTRA:         -16.346
REMARK INTER:                 -15.694
REMARK INTRA:                  -0.652
REMARK UNBOUND:                -0.456
REMARK Flexibility Score: inf
REMARK Active torsions [ 7 ] -> [ 7 ]
ROOT
ATOM      1  C1  LIG L   1      16.400  55.579  12.750  1.00  0.00     0.038 A 
ATOM      2  C2  LIG L   1      17.031  55.182  11.486  1.00  0.00    -0.029 A 
ATOM      3  C3  LIG L   1      17.542  53.845  11.374  1.00  0.00     0.007 A 
ATOM      4  C4  LIG L   1      17.434  52.922  12.476  1.00  0.00     0.024 A 
ATOM      5  C5  LIG L   1      16.819  53.303  13.704  1.00  0.00     0.035 A 
ATOM      6  C6  LIG L   1      16.301  54.657  13.824  1.00  0.00     0.047 A 
ATOM      7  C7  LIG L   1      17.169  56.127  10.270  1.00  0.00     0.045 C 
ENDROOT
BRANCH    1    8
ATOM      8  N1  LIG L   1      15.886  56.866  12.921  1.00  0.00    -0.283 N 
ATOM      9  H1  LIG L   1      16.444  57.561  13.341  1.00  0.00     0.155 HD
BRANCH    8   10
ATOM     10  C8  LIG L   1      14.601  57.177  12.505  1.00  0.00     0.220 A 
ATOM     11  C9  LIG L   1      12.957  58.865  12.153  1.00  0.00     0.077 A 
ATOM     12 C10  LIG L   1      12.013  57.884  11.699  1.00  0.00     0.048 A 
ATOM     13  N2  LIG L   1      14.219  58.471  12.538  1.00  0.00    -0.214 NA
ATOM     14 C11  LIG L   1      12.439  56.537  11.672  1.00  0.00     0.116 A 
ATOM     15  N3  LIG L   1      13.715  56.207  12.074  1.00  0.00    -0.223 NA
BRANCH   11   16
ATOM     16 C12  LIG L   1      12.655  60.328  12.241  1.00  0.00     0.019 A 
ATOM     17 C13  LIG L   1      13.291  62.716  12.749  1.00  0.00     0.020 A 
ATOM     18 C14  LIG L   1      13.634  61.314  12.682  1.00  0.00     0.013 A 
ATOM     19 C15  LIG L   1      11.960  63.112  12.371  1.00  0.00     0.111 A 
ATOM     20  N4  LIG L   1      11.027  62.154  11.946  1.00  0.00    -0.263 NA
ATOM     21 C16  LIG L   1      11.328  60.798  11.871  1.00  0.00     0.120 A 
ENDBRANCH   11   16
ENDBRANCH    8   10
ENDBRANCH    1    8
BRANCH    5   22
ATOM     22  N5  LIG L   1      16.739  52.322  14.757  1.00  0.00    -0.281 N 
ATOM     23 C17  LIG L   1      15.697  52.107  15.644  1.00  0.00     0.248 C 
ATOM     24  H2  LIG L   1      17.522  51.732  14.857  1.00  0.00     0.155 HD
ATOM     25  O1  LIG L   1      14.758  52.872  15.805  1.00  0.00    -0.270 OA
BRANCH   23   26
ATOM     26 C18  LIG L   1      15.708  50.871  16.485  1.00  0.00     0.037 A 
ATOM     27 C19  LIG L   1      14.484  50.371  17.116  1.00  0.00     0.013 A 
ATOM     28 C20  LIG L   1      16.958  50.168  16.681  1.00  0.00     0.013 A 
ATOM     29 C21  LIG L   1      14.525  49.186  17.936  1.00  0.00     0.002 A 
ATOM     30 C22  LIG L   1      16.994  49.006  17.485  1.00  0.00     0.002 A 
ATOM     31 C23  LIG L   1      15.796  48.492  18.127  1.00  0.00    -0.064 A 
BRANCH   31   32
ATOM     32 C24  LIG L   1      15.937  47.232  19.002  1.00  0.00    -0.043 C 
BRANCH   32   33
ATOM     33  N6  LIG L   1      17.125  47.156  19.905  1.00  0.00     0.380 N 
ATOM     34 C25  LIG L   1      17.068  48.244  20.949  1.00  0.00    -0.097 C 
ATOM     35 C26  LIG L   1      17.248  45.786  20.578  1.00  0.00    -0.097 C 
ATOM     36  H3  LIG L   1      17.952  47.291  19.324  1.00  0.00    -0.082 HD
ATOM     37 C27  LIG L   1      18.307  48.195  21.886  1.00  0.00    -0.098 C 
ATOM     38 C28  LIG L   1      18.508  45.717  21.501  1.00  0.00    -0.098 C 
ATOM     39  N7  LIG L   1      18.432  46.830  22.547  1.00  0.00     0.375 N 
ATOM     40 C29  LIG L   1      19.587  46.732  23.453  1.00  0.00    -0.096 C 
ATOM     41  H4  LIG L   1      17.590  46.716  23.111  1.00  0.00    -0.082 HD
ENDBRANCH   32   33
ENDBRANCH   31   32
ENDBRANCH   23   26
ENDBRANCH    5   22
TORSDOF 7
ENDMDL
MODEL 3
REMARK VINA RESULT:   -11.270      3.016     12.418
REMARK INTER + INTRA:         -16.338
REMARK INTER:                 -15.382
REMARK INTRA:                  -0.956
REMARK UNBOUND:                -0.456
REMARK Flexibility Score: inf
REMARK Active torsions [ 7 ] -> [ 7 ]
ROOT
ATOM      1  C1  LIG L   1      16.854  48.699  17.627  1.00  0.00     0.038 A 
ATOM      2  C2  LIG L   1      15.536  48.421  18.211  1.00  0.00    -0.029 A 
ATOM      3  C3  LIG L   1      14.474  49.354  17.963  1.00  0.00     0.007 A 
ATOM      4  C4  LIG L   1      14.701  50.529  17.160  1.00  0.00     0.024 A 
ATOM      5  C5  LIG L   1      15.978  50.800  16.588  1.00  0.00     0.035 A 
ATOM      6  C6  LIG L   1      17.059  49.860  16.838  1.00  0.00     0.047 A 
ATOM      7  C7  LIG L   1      15.234  47.174  19.075  1.00  0.00     0.045 C 
ENDROOT
BRANCH    1    8
ATOM      8  N1  LIG L   1      17.927  47.830  17.835  1.00  0.00    -0.283 N 
ATOM      9  H1  LIG L   1      17.975  46.986  17.329  1.00  0.00     0.155 HD
BRANCH    8   10
ATOM     10  C8  LIG L   1      18.925  48.141  18.745  1.00  0.00     0.220 A 
ATOM     11  C9  LIG L   1      20.947  49.323  19.181  1.00  0.00     0.077 A 
ATOM     12 C10  LIG L   1      20.989  48.805  20.519  1.00  0.00     0.048 A 
ATOM     13  N2  LIG L   1      19.912  48.970  18.345  1.00  0.00    -0.214 NA
ATOM     14 C11  LIG L   1      19.943  47.941  20.913  1.00  0.00     0.116 A 
ATOM     15  N3  LIG L   1      18.936  47.624  20.027  1.00  0.00    -0.223 NA
BRANCH   11   16
ATOM     16 C12  LIG L   1      21.982  50.246  18.616  1.00  0.00     0.019 A 
ATOM     17 C13  LIG L   1      24.201  50.707  17.509  1.00  0.00     0.020 A 
ATOM     18 C14  LIG L   1      23.235  49.774  18.042  1.00  0.00     0.013 A 
ATOM     19 C15  LIG L   1      23.893  52.112  17.563  1.00  0.00     0.111 A 
ATOM     20  N4  LIG L   1      22.683  52.554  18.117  1.00  0.00    -0.263 NA
ATOM     21 C16  LIG L   1      21.734  51.679  18.636  1.00  0.00     0.120 A 
ENDBRANCH   11   16
ENDBRANCH    8   10
ENDBRANCH    1    8
BRANCH    5   22
ATOM     22  N5  LIG L   1      16.125  51.991  15.789  1.00  0.00    -0.281 N 
ATOM     23 C17  LIG L   1      15.637  52.227  14.514  1.00  0.00     0.248 C 
ATOM     24  H2  LIG L   1      16.634  52.727  16.200  1.00  0.00     0.155 HD
ATOM     25  O1  LIG L   1      15.180  51.364  13.779  1.00  0.00    -0.270 OA
BRANCH   23   26
ATOM     26 C18  LIG L   1      15.677  53.619  13.971  1.00  0.00     0.037 A 
ATOM     27 C19  LIG L   1      16.947  54.321  13.772  1.00  0.00     0.013 A 
ATOM     28 C20  LIG L   1      14.430  54.281  13.650  1.00  0.00     0.013 A 
ATOM     29 C21  LIG L   1      16.956  55.670  13.263  1.00  0.00     0.002 A 
ATOM     30 C22  LIG L   1      14.443  55.603  13.151  1.00  0.00     0.002 A 
ATOM     31 C23  LIG L   1      15.688  56.325  12.949  1.00  0.00    -0.064 A 
BRANCH   31   32
ATOM     32 C24  LIG L   1      15.601  57.769  12.421  1.00  0.00    -0.043 C 
BRANCH   32   33
ATOM     33  N6  LIG L   1      14.330  58.512  12.669  1.00  0.00     0.380 N 
ATOM     34 C25  LIG L   1      14.619  59.905  13.173  1.00  0.00    -0.097 C 
ATOM     35 C26  LIG L   1      13.449  58.578  11.418  1.00  0.00    -0.097 C 
ATOM     36  H3  LIG L   1      13.815  57.997  13.384  1.00  0.00    -0.082 HD
ATOM     37 C27  LIG L   1      13.307  60.689  13.458  1.00  0.00    -0.098 C 
ATOM     38 C28  LIG L   1      12.113  59.339  11.702  1.00  0.00    -0.098 C 
ATOM     39  N7  LIG L   1      12.430  60.745  12.215  1.00  0.00     0.375 N 
ATOM     40 C29  LIG L   1      11.176  61.483  12.427  1.00  0.00    -0.096 C 
ATOM     41  H4  LIG L   1      12.971  61.253  11.515  1.00  0.00    -0.082 HD
ENDBRANCH   32   33
ENDBRANCH   31   32
ENDBRANCH   23   26
ENDBRANCH    5   22
TORSDOF 7
ENDMDL
MODEL 4
REMARK VINA RESULT:   -10.909      3.806     12.505
REMARK INTER + INTRA:         -15.829
REMARK INTER:                 -14.939
REMARK INTRA:                  -0.890
REMARK UNBOUND:                -0.456
REMARK Flexibility Score: inf
REMARK Active torsions [ 7 ] -> [ 7 ]
ROOT
ATOM      1  C1  LIG L   1      18.129  48.382  19.056  1.00  0.00     0.038 A 
ATOM      2  C2  LIG L   1      17.109  47.337  19.202  1.00  0.00    -0.029 A 
ATOM      3  C3  LIG L   1      15.969  47.376  18.331  1.00  0.00     0.007 A 
ATOM      4  C4  LIG L   1      15.836  48.415  17.341  1.00  0.00     0.024 A 
ATOM      5  C5  LIG L   1      16.826  49.429  17.194  1.00  0.00     0.035 A 
ATOM      6  C6  LIG L   1      17.983  49.396  18.075  1.00  0.00     0.047 A 
ATOM      7  C7  LIG L   1      17.203  46.196  20.242  1.00  0.00     0.045 C 
ENDROOT
BRANCH    1    8
ATOM      8  N1  LIG L   1      19.260  48.399  19.875  1.00  0.00    -0.283 N 
ATOM      9  H1  LIG L   1      19.171  48.652  20.823  1.00  0.00     0.155 HD
BRANCH    8   10
ATOM     10  C8  LIG L   1      20.507  48.063  19.370  1.00  0.00     0.220 A 
ATOM     11  C9  LIG L   1      22.637  48.815  18.615  1.00  0.00     0.077 A 
ATOM     12 C10  LIG L   1      23.039  47.467  18.332  1.00  0.00     0.048 A 
ATOM     13  N2  LIG L   1      21.382  49.060  19.127  1.00  0.00    -0.214 NA
ATOM     14 C11  LIG L   1      22.104  46.442  18.597  1.00  0.00     0.116 A 
ATOM     15  N3  LIG L   1      20.862  46.753  19.107  1.00  0.00    -0.223 NA
BRANCH   11   16
ATOM     16 C12  LIG L   1      23.512  50.008  18.385  1.00  0.00     0.019 A 
ATOM     17 C13  LIG L   1      24.931  51.491  16.917  1.00  0.00     0.020 A 
ATOM     18 C14  LIG L   1      24.092  50.326  17.086  1.00  0.00     0.013 A 
ATOM     19 C15  LIG L   1      25.179  52.324  18.064  1.00  0.00     0.111 A 
ATOM     20  N4  LIG L   1      24.614  52.009  19.309  1.00  0.00    -0.263 NA
ATOM     21 C16  LIG L   1      23.802  50.895  19.501  1.00  0.00     0.120 A 
ENDBRANCH   11   16
ENDBRANCH    8   10
ENDBRANCH    1    8
BRANCH    5   22
ATOM     22  N5  LIG L   1      16.628  50.429  16.174  1.00  0.00    -0.281 N 
ATOM     23 C17  LIG L   1      15.544  51.277  16.013  1.00  0.00     0.248 C 
ATOM     24  H2  LIG L   1      17.350  50.520  15.511  1.00  0.00     0.155 HD
ATOM     25  O1  LIG L   1      14.479  51.157  16.599  1.00  0.00    -0.270 OA
BRANCH   23   26
ATOM     26 C18  LIG L   1      15.655  52.415  15.050  1.00  0.00     0.037 A 
ATOM     27 C19  LIG L   1      16.667  52.419  13.991  1.00  0.00     0.013 A 
ATOM     28 C20  LIG L   1      14.748  53.535  15.181  1.00  0.00     0.013 A 
ATOM     29 C21  LIG L   1      16.764  53.536  13.086  1.00  0.00     0.002 A 
ATOM     30 C22  LIG L   1      14.844  54.629  14.291  1.00  0.00     0.002 A 
ATOM     31 C23  LIG L   1      15.842  54.660  13.235  1.00  0.00    -0.064 A 
BRANCH   31   32
ATOM     32 C24  LIG L   1      15.887  55.904  12.328  1.00  0.00    -0.043 C 
BRANCH   32   33
ATOM     33  N6  LIG L   1      15.132  57.110  12.784  1.00  0.00     0.380 N 
ATOM     34 C25  LIG L   1      16.027  58.325  12.791  1.00  0.00    -0.097 C 
ATOM     35 C26  LIG L   1      13.895  57.373  11.921  1.00  0.00    -0.097 C 
ATOM     36  H3  LIG L   1      14.813  56.923  13.734  1.00  0.00    -0.082 HD
ATOM     37 C27  LIG L   1      15.266  59.587  13.283  1.00  0.00    -0.098 C 
ATOM     38 C28  LIG L   1      13.105  58.625  12.425  1.00  0.00    -0.098 C 
ATOM     39  N7  LIG L   1      14.032  59.842  12.429  1.00  0.00     0.375 N 
ATOM     40 C29  LIG L   1      13.277  61.032  12.848  1.00  0.00    -0.096 C 
ATOM     41  H4  LIG L   1      14.377  60.014  11.485  1.00  0.00    -0.082 HD
ENDBRANCH   32   33
ENDBRANCH   31   32
ENDBRANCH   23   26
ENDBRANCH    5   22
TORSDOF 7
ENDMDL
MODEL 5
REMARK VINA RESULT:   -10.527      2.571     12.591
REMARK INTER + INTRA:         -15.291
REMARK INTER:                 -14.512
REMARK INTRA:                  -0.779
REMARK UNBOUND:                -0.456
REMARK Flexibility Score: inf
REMARK Active torsions [ 7 ] -> [ 7 ]
ROOT
ATOM      1  C1  LIG L   1      15.539  47.768  18.666  1.00  0.00     0.038 A 
ATOM      2  C2  LIG L   1      14.226  47.545  19.282  1.00  0.00    -0.029 A 
ATOM      3  C3  LIG L   1      13.182  48.492  19.013  1.00  0.00     0.007 A 
ATOM      4  C4  LIG L   1      13.422  49.628  18.158  1.00  0.00     0.024 A 
ATOM      5  C5  LIG L   1      14.695  49.845  17.555  1.00  0.00     0.035 A 
ATOM      6  C6  LIG L   1      15.758  48.890  17.827  1.00  0.00     0.047 A 
ATOM      7  C7  LIG L   1      13.910  46.342  20.200  1.00  0.00     0.045 C 
ENDROOT
BRANCH    1    8
ATOM      8  N1  LIG L   1      16.595  46.882  18.892  1.00  0.00    -0.283 N 
ATOM      9  H1  LIG L   1      16.611  46.014  18.426  1.00  0.00     0.155 HD
BRANCH    8   10
ATOM     10  C8  LIG L   1      17.621  47.211  19.764  1.00  0.00     0.220 A 
ATOM     11  C9  LIG L   1      19.854  47.998  20.034  1.00  0.00     0.077 A 
ATOM     12 C10  LIG L   1      19.748  47.880  21.460  1.00  0.00     0.048 A 
ATOM     13  N2  LIG L   1      18.781  47.659  19.240  1.00  0.00    -0.214 NA
ATOM     14 C11  LIG L   1      18.523  47.409  21.983  1.00  0.00     0.116 A 
ATOM     15  N3  LIG L   1      17.487  47.084  21.135  1.00  0.00    -0.223 NA
BRANCH   11   16
ATOM     16 C12  LIG L   1      21.085  48.477  19.329  1.00  0.00     0.019 A 
ATOM     17 C13  LIG L   1      23.336  48.100  18.255  1.00  0.00     0.020 A 
ATOM     18 C14  LIG L   1      22.168  47.586  18.933  1.00  0.00     0.013 A 
ATOM     19 C15  LIG L   1      23.401  49.511  17.983  1.00  0.00     0.111 A 
ATOM     20  N4  LIG L   1      22.351  50.359  18.368  1.00  0.00    -0.263 NA
ATOM     21 C16  LIG L   1      21.215  49.893  19.021  1.00  0.00     0.120 A 
ENDBRANCH   11   16
ENDBRANCH    8   10
ENDBRANCH    1    8
BRANCH    5   22
ATOM     22  N5  LIG L   1      14.856  50.999  16.705  1.00  0.00    -0.281 N 
ATOM     23 C17  LIG L   1      15.983  51.385  15.998  1.00  0.00     0.248 C 
ATOM     24  H2  LIG L   1      14.069  51.584  16.618  1.00  0.00     0.155 HD
ATOM     25  O1  LIG L   1      17.097  50.909  16.159  1.00  0.00    -0.270 OA
BRANCH   23   26
ATOM     26 C18  LIG L   1      15.857  52.466  14.973  1.00  0.00     0.037 A 
ATOM     27 C19  LIG L   1      16.702  52.481  13.777  1.00  0.00     0.013 A 
ATOM     28 C20  LIG L   1      14.887  53.519  15.182  1.00  0.00     0.013 A 
ATOM     29 C21  LIG L   1      16.572  53.545  12.813  1.00  0.00     0.002 A 
ATOM     30 C22  LIG L   1      14.761  54.560  14.234  1.00  0.00     0.002 A 
ATOM     31 C23  LIG L   1      15.590  54.602  13.041  1.00  0.00    -0.064 A 
BRANCH   31   32
ATOM     32 C24  LIG L   1      15.398  55.787  12.077  1.00  0.00    -0.043 C 
BRANCH   32   33
ATOM     33  N6  LIG L   1      14.741  57.013  12.622  1.00  0.00     0.380 N 
ATOM     34 C25  LIG L   1      15.747  58.127  12.782  1.00  0.00    -0.097 C 
ATOM     35 C26  LIG L   1      13.576  57.478  11.745  1.00  0.00    -0.097 C 
ATOM     36  H3  LIG L   1      14.362  56.769  13.537  1.00  0.00    -0.082 HD
ATOM     37 C27  LIG L   1      15.087  59.406  13.368  1.00  0.00    -0.098 C 
ATOM     38 C28  LIG L   1      12.886  58.748  12.341  1.00  0.00    -0.098 C 
ATOM     39  N7  LIG L   1      13.923  59.862  12.500  1.00  0.00     0.375 N 
ATOM     40 C29  LIG L   1      13.266  61.075  13.006  1.00  0.00    -0.096 C 
ATOM     41  H4  LIG L   1      14.327  60.088  11.590  1.00  0.00    -0.082 HD
ENDBRANCH   32   33
ENDBRANCH   31   32
ENDBRANCH   23   26
ENDBRANCH    5   22
TORSDOF 7
ENDMDL
